Version 4
SHEET 1 1392 680
WIRE -16 -448 -32 -448
WIRE 208 -448 -16 -448
WIRE 208 -368 208 -448
WIRE -32 -256 -32 -448
WIRE 80 -256 -32 -256
WIRE 384 -256 336 -256
WIRE 560 -256 464 -256
WIRE 624 -256 560 -256
WIRE 208 -80 208 -144
WIRE 256 -80 208 -80
WIRE 288 -80 256 -80
WIRE 208 -32 -112 -32
WIRE 208 32 208 -32
WIRE -112 144 -112 -32
WIRE 0 144 -112 144
WIRE 80 144 0 144
WIRE 368 144 336 144
WIRE 528 144 448 144
WIRE 624 144 528 144
WIRE 0 176 0 144
WIRE 528 176 528 144
WIRE 624 192 624 144
WIRE -112 224 -112 144
WIRE 208 288 208 256
WIRE 240 288 208 288
WIRE 288 288 240 288
WIRE 624 288 624 272
WIRE 800 288 624 288
WIRE 208 304 208 288
WIRE 624 304 624 288
WIRE 800 352 800 288
WIRE 912 368 848 368
WIRE 912 432 912 368
FLAG 208 384 0
FLAG -112 304 0
FLAG 624 144 VO
FLAG -112 -32 VI
FLAG 848 416 0
FLAG 912 512 0
FLAG 800 432 0
FLAG 624 384 0
FLAG 528 240 0
FLAG 0 240 0
FLAG 240 288 SET
FLAG -16 -448 VI
FLAG 256 -80 SET
FLAG 560 -256 VO
SYMBOL PowerProducts\\LT3080 208 144 R0
SYMATTR InstName U1
SYMBOL res 192 288 R0
SYMATTR InstName R1
SYMATTR Value 165k
SYMBOL voltage -112 208 R0
WINDOW 123 0 0 Left 0
WINDOW 39 0 0 Left 0
SYMATTR InstName V1
SYMATTR Value 8
SYMBOL res 608 176 R0
SYMATTR InstName R2
SYMATTR Value 2
SYMBOL sw 800 448 R180
SYMATTR InstName S1
SYMATTR Value MYSW
SYMBOL voltage 912 416 R0
WINDOW 123 0 0 Left 0
WINDOW 39 0 0 Left 0
SYMATTR InstName V2
SYMATTR Value PULSE(0 5 5m 1000u 1000u 10m 20m)
SYMBOL res 640 400 R180
WINDOW 0 36 76 Left 2
WINDOW 3 36 40 Left 2
SYMATTR InstName R3
SYMATTR Value 2
SYMBOL cap 512 176 R0
SYMATTR InstName C1
SYMATTR Value 10µ
SYMBOL cap -16 176 R0
SYMATTR InstName C2
SYMATTR Value 1µ
SYMBOL PowerProducts\\LT3080 208 -256 R0
SYMATTR InstName U2
SYMBOL res 480 -272 R90
WINDOW 0 0 56 VBottom 2
WINDOW 3 32 56 VTop 2
SYMATTR InstName R4
SYMATTR Value 10m
SYMBOL res 464 128 R90
WINDOW 0 0 56 VBottom 2
WINDOW 3 32 56 VTop 2
SYMATTR InstName R5
SYMATTR Value 10m
TEXT -240 376 Left 2 !.tran 0 10m 0 1u
TEXT -400 440 Left 2 !.model MYSW SW(Ron=1m Roff=10Meg Vt=.5 Vh=-.4)
